/*--------------------------------*- C++ -*----------------------------------*\
| =========                 |                                                 |
| \\      /  F ield         | OpenFOAM: The Open Source CFD Toolbox           |
|  \\    /   O peration     | Version:  2412                                  |
|   \\  /    A nd           | Website:  www.openfoam.com                      |
|    \\/     M anipulation  |                                                 |
\*---------------------------------------------------------------------------*/
FoamFile
{
    version     2.0;
    format      ascii;
    arch        "LSB;label=32;scalar=64";
    class       polyBoundaryMesh;
    location    "constant/polyMesh";
    object      boundary;
}
// * * * * * * * * * * * * * * * * * * * * * * * * * * * * * * * * * * * * * //

4
(
    inlet
    {
        type            patch;
        nFaces          6400;
        startFace       2423582;
    }
    outlet
    {
        type            patch;
        nFaces          6400;
        startFace       2429982;
    }
    farfield
    {
        type            patch;
        nFaces          38400;
        startFace       2436382;
    }
    rocket
    {
        type            wall;
        inGroups        1(wall);
        nFaces          11770;
        startFace       2474782;
    }
)

// ************************************************************************* //
