/*--------------------------------*- C++ -*----------------------------------*\
| =========                 |                                                 |
| \\      /  Field          | OpenFOAM: v2412                                  |
|  \\    /   Operation      |                                                 |
|   \\  /    And            |                                                 |
|    \\/     Manipulation   |                                                 |
\*---------------------------------------------------------------------------*/
FoamFile
{
    version     2.0;
    format      ascii;
    class       dictionary;
    object      blockMeshDict;
}

convertToMeters 1.0;

// --------------------
// Vertices
// --------------------
vertices
(
    (-0.335  -0.335  -0.335) // 0
    ( 0.629  -0.335  -0.335) // 1
    ( 0.629   0.335  -0.335) // 2
    (-0.335   0.335  -0.335) // 3
    (-0.335  -0.335   0.335) // 4
    ( 0.629  -0.335   0.335) // 5
    ( 0.629   0.335   0.335) // 6
    (-0.335   0.335   0.335) // 7
);

// --------------------
// Blocks
// --------------------
blocks
(
    hex (0 1 2 3 4 5 6 7)
    (120 80 80)        // x y z cells
    simpleGrading (1 1 1)
);

// --------------------
// Boundaries
// --------------------
boundary
(
    inlet
    {
        type patch;
        faces
        (
            (0 3 7 4)   // x-
        );
    }

    outlet
    {
        type patch;
        faces
        (
            (1 5 6 2)   // x+
        );
    }

    farfield
    {
        type patch;
        faces
        (
            (0 1 5 4)   // y-
            (3 2 6 7)   // y+
            (0 1 2 3)   // z-
            (4 5 6 7)   // z+
        );
    }
);

// ************************************************************************* //
